@<TRIPOS>MOLECULE
cdgmp
 68 74 0 0 0
SMALL
GASTEIGER

@<TRIPOS>ATOM
      1 C           1.7267    3.8981   -6.9552 C.3     1  UNL11       0.0837
      2 C           1.9302    5.4216   -6.6395 C.3     1  UNL11       0.1139
      3 C           0.7689    6.4317   -6.2628 C.3     1  UNL11       0.1241
      4 C           1.2422    7.7031   -7.0135 C.3     1  UNL11       0.1292
      5 C           2.0780    7.1461   -8.1812 C.3     1  UNL11       0.1666
      6 O           2.7409    5.9864   -7.6751 O.3     1  UNL11      -0.3456
      7 N           3.0066    8.0816   -8.7541 N.pl3   1  UNL11      -0.2869
      8 C           2.8307    8.7918   -9.8950 C.3     1  UNL11       0.1004
      9 N           3.9087    9.5650  -10.1473 N.pl3   1  UNL11      -0.2286
     10 C           4.7667    9.3341   -9.1525 C.3     1  UNL11       0.1721
     11 C           4.2196    8.4059   -8.2623 C.3     1  UNL11       0.1483
     12 N           4.8726    7.9739   -7.1453 N.pl3   1  UNL11      -0.3122
     13 C           6.1225    8.4639   -6.8705 C.3     1  UNL11       0.1952
     14 N           6.6749    9.3765   -7.7356 N.am    1  UNL11      -0.1756
     15 C           6.0564    9.8383   -8.8684 C.2     1  UNL11       0.3021
     16 O           6.6098   10.6706   -9.6190 O.2     1  UNL11      -0.2633
     17 N           6.7913    8.0613   -5.7813 N.pl3   1  UNL11      -0.3289
     18 O           2.0084    8.5431   -6.1504 O.3     1  UNL11      -0.3846
     19 O          -0.5564    5.9703   -6.6221 O.3     1  UNL11      -0.3187
     20 P          -1.9278    6.7437   -6.3169 P.3     1  UNL11       0.2131
     21 O          -2.1379    6.8215   -4.8667 O.2     1  UNL11      -0.5172
     22 O          -3.1628    5.9193   -6.9409 O.3     1  UNL11      -0.3248
     23 C          -3.0605    5.6005   -8.3419 C.3     1  UNL11       0.0837
     24 C          -3.3100    4.0970   -8.6943 C.3     1  UNL11       0.1139
     25 C          -2.4096    3.5194   -9.8550 C.3     1  UNL11       0.1241
     26 C          -3.3165    2.4470  -10.4647 C.3     1  UNL11       0.1292
     27 C          -4.7369    2.7462   -9.9104 C.3     1  UNL11       0.1666
     28 O          -4.6552    3.9486   -9.1314 O.3     1  UNL11      -0.3456
     29 N          -5.4805    1.6493   -9.3300 N.pl3   1  UNL11      -0.2869
     30 C          -6.5998    1.7657   -8.5794 C.3     1  UNL11       0.1004
     31 N          -7.2519    0.5847   -8.4404 N.pl3   1  UNL11      -0.2286
     32 C          -6.5283   -0.3019   -9.1477 C.3     1  UNL11       0.1721
     33 C          -5.3909    0.3339   -9.6686 C.3     1  UNL11       0.1483
     34 N          -4.5046   -0.3374  -10.4684 N.pl3   1  UNL11      -0.3122
     35 C          -4.7164   -1.6367  -10.8256 C.3     1  UNL11       0.1952
     36 N          -5.8501   -2.2542  -10.3231 N.am    1  UNL11      -0.1756
     37 C          -6.7571   -1.6593   -9.4827 C.2     1  UNL11       0.3021
     38 O          -7.7405   -2.2865   -9.0332 O.2     1  UNL11      -0.2633
     39 N          -3.8639   -2.2883  -11.6283 N.pl3   1  UNL11      -0.3289
     40 O          -3.3258    2.4502  -11.8924 O.3     1  UNL11      -0.3846
     41 O          -1.0994    2.8919   -9.5856 O.3     1  UNL11      -0.3187
     42 P          -0.2347    3.6917   -8.5046 P.3     1  UNL11       0.2131
     43 O          -0.2850    5.0902   -8.9460 O.2     1  UNL11      -0.5172
     44 O           1.3060    3.3618   -8.2527 O.3     1  UNL11      -0.3248
     45 O          -0.9830    3.3772   -7.1310 O.co2   1  UNL11      -0.4373
     46 O          -1.9280    8.2062   -6.9217 O.co2   1  UNL11      -0.4373
     47 H           2.5845    3.3336   -6.5896 H       1  UNL11       0.0591
     48 H           0.9186    3.6325   -6.2736 H       1  UNL11       0.0591
     49 H           2.5809    5.3913   -5.7621 H       1  UNL11       0.0647
     50 H           0.7735    6.6157   -5.1822 H       1  UNL11       0.0655
     51 H           0.4317    8.3044   -7.4163 H       1  UNL11       0.0666
     52 H           1.3939    6.7979   -8.9599 H       1  UNL11       0.0866
     53 H           1.9981    8.7482  -10.4826 H       1  UNL11       0.1030
     54 H           4.4573    7.3278   -6.5529 H       1  UNL11       0.1700
     55 H           7.6517    8.5078   -5.7468 H       1  UNL11       0.1451
     56 H           6.2798    8.2832   -4.9875 H       1  UNL11       0.1451
     57 H           1.4588    8.8133   -5.3853 H       1  UNL11       0.2101
     58 H          -2.0812    5.9030   -8.7127 H       1  UNL11       0.0591
     59 H          -3.7567    6.2225   -8.9045 H       1  UNL11       0.0591
     60 H          -3.2463    3.4944   -7.7856 H       1  UNL11       0.0647
     61 H          -2.2817    4.2916  -10.6219 H       1  UNL11       0.0655
     62 H          -2.9230    1.4808  -10.1554 H       1  UNL11       0.0666
     63 H          -5.3692    3.0465  -10.7486 H       1  UNL11       0.0866
     64 H          -6.9173    2.6421   -8.1651 H       1  UNL11       0.1030
     65 H          -3.7109    0.1201  -10.7871 H       1  UNL11       0.1700
     66 H          -4.1798   -3.1946  -11.7679 H       1  UNL11       0.1451
     67 H          -2.9859   -2.3117  -11.2166 H       1  UNL11       0.1451
     68 H          -2.4183    2.2895  -12.2254 H       1  UNL11       0.2101
@<TRIPOS>UNITY_ATOM_ATTR
45 1
charge -1
46 1
charge -1
@<TRIPOS>BOND
     1     1     2    1
     2     2     3    1
     3     3     4    1
     4     4     5    1
     5     5     6    1
     6     2     6    1
     7     5     7    1
     8     7     8   ar
     9     8     9   ar
    10     9    10   ar
    11    10    11   ar
    12     7    11   ar
    13    11    12   ar
    14    12    13   ar
    15    13    14   ar
    16    14    15   ar
    17    10    15   ar
    18    15    16    2
    19    13    17    1
    20     4    18    1
    21     3    19    1
    22    19    20    1
    23    20    21    2
    24    20    22    1
    25    22    23    1
    26    23    24    1
    27    24    25    1
    28    25    26    1
    29    26    27    1
    30    27    28    1
    31    24    28    1
    32    27    29    1
    33    29    30   ar
    34    30    31   ar
    35    31    32   ar
    36    32    33   ar
    37    29    33   ar
    38    33    34   ar
    39    34    35   ar
    40    35    36   ar
    41    36    37   ar
    42    32    37   ar
    43    37    38    2
    44    35    39    1
    45    26    40    1
    46    25    41    1
    47    41    42    1
    48    42    43    2
    49    42    44    1
    50     1    44    1
    51    42    45    1
    52    20    46    1
    53     1    47    1
    54     1    48    1
    55     2    49    1
    56     3    50    1
    57     4    51    1
    58     5    52    1
    59     8    53    1
    60    12    54    1
    61    17    55    1
    62    17    56    1
    63    18    57    1
    64    23    58    1
    65    23    59    1
    66    24    60    1
    67    25    61    1
    68    26    62    1
    69    27    63    1
    70    30    64    1
    71    34    65    1
    72    39    66    1
    73    39    67    1
    74    40    68    1
